OPT_V10/Two_days_MCY3_MIQCPM1/powerflow_results_t40.txt
Pandapower Network Debug Info
==================================================

BUS:
       vm_pu  va_degree      p_mw    q_mvar
0   0.992940   0.152548  0.000833  0.000874
1   0.988572   0.268738  0.001334  0.002091
2   0.984611   0.391932  0.001557  0.003528
3   0.988921   0.231729  0.002715  0.004150
4   0.999882   0.001161  0.011402  0.011865
5   0.999869   0.001257  0.009631  0.010099
6   0.999859   0.001320  0.011671  0.011345
7   0.999927   0.000815  0.000000  0.000000
8   0.999927   0.000821  0.000000  0.000000
9   1.000000   0.000000 -0.039299 -0.049056
10  1.000000   0.000007  0.000000  0.000000
--------------------------------------------------

LINE:
   p_from_mw  q_from_mvar   p_to_mw  q_to_mvar         pl_mw       ql_mvar  i_from_ka   i_to_ka      i_ka  vm_from_pu  va_from_degree  vm_to_pu  va_to_degree  loading_percent
0   0.039289     0.045056 -0.039285  -0.045053  3.495521e-06  2.725515e-06   0.002301  0.002301  0.002301    1.000000        0.000007  0.999927      0.000815         1.000408
1   0.032706     0.033310 -0.032705  -0.033309  1.685449e-06  1.314172e-06   0.001797  0.001797  0.001797    0.999927        0.000815  0.999882      0.001161         0.781284
2   0.006569     0.010743 -0.006495  -0.010685  7.417648e-05  5.783663e-05   0.018177  0.018177  0.018177    0.999927        0.000821  0.992940      0.152548         7.902990
3  -0.021302    -0.021444  0.021303   0.021444  3.160409e-07  2.464223e-07   0.001164  0.001164  0.001164    0.999869        0.001257  0.999882      0.001161         0.505901
4  -0.011671    -0.011345  0.011671   0.011345  1.295992e-07  1.010506e-07   0.000627  0.000627  0.000627    0.999859        0.001320  0.999869      0.001257         0.272419
5  -0.002905    -0.005630  0.002930   0.005649  2.429938e-05  1.894663e-05   0.009250  0.009250  0.009250    0.988572        0.268738  0.992940      0.152548         4.021851
6  -0.002715    -0.004150  0.002732   0.004163  1.678934e-05  1.309092e-05   0.007238  0.007238  0.007238    0.988921        0.231729  0.992940      0.152548         3.146898
7  -0.001557    -0.003528  0.001571   0.003539  1.387631e-05  1.081959e-05   0.005653  0.005653  0.005653    0.984611        0.391932  0.988572      0.268738         2.457886
--------------------------------------------------

TRAFO:
    p_hv_mw  q_hv_mvar   p_lv_mw  q_lv_mvar    pl_mw  ql_mvar   i_hv_ka   i_lv_ka  vm_hv_pu  va_hv_degree  vm_lv_pu  va_lv_degree  loading_percent
0  0.006579   0.011743 -0.006569  -0.010743  0.00001    0.001  0.000518  0.018177  0.999927      0.000815  0.999927      0.000821         0.134614
1  0.039299   0.049056 -0.039289  -0.045056  0.00001    0.004  0.000518  0.002301  1.000000      0.000000  1.000000      0.000007         0.157140
--------------------------------------------------
